@id 33wbvEBDyhgYfr7W
@title AeroDynamic-Aviation-REID-HILLVIEW-RADIO-COMMUNICATION.pdf (web page)
@alias https://www.aerodynamicaviation.com/wp-content/uploads/2014/03/AeroDynamic-Aviation-REID-HILLVIEW-RADIO-COMMUNICATION.pdf
@created 1555874623040
