@id 7TXfPRhiRzE2Z1E6
@title AeroDynamic Aviation » N616SF – Cessna 172RG (web page)
@alias https://www.aerodynamicaviation.com/about/rhv/rhvaircraft/cessna-172rg-n616sf/
@created 1748352064018
