@id ACefElXoLdZ2Cfka
@title session with Lauren Benge at AeroDynamic, ___
@created 1684801068652
* :MHyEJgbkWfFubOy3: 
* :HVXFqMBVRd4Zyb2g: 
* :vT7VNwunUG8nIVlV: 
* :sXp9rgM1jPH1ygsw: 
* :wGi2RlklPaOKEdez: 
* :e1Yc1aCrffpYxhUs: 
* :1dgmSZ97Fw9zYkRc: 
* :HSOuUHv5lDMzN1iz: 
* :vGOAH95voXaNINy3: 
* :RXQ1UgYFfkpSc2qW: 
* :fhYWGsXewoXI0z8R: 
* :ih7ZhKJoX06FK95u: 
* :aSVT0ppvyS9ZxURp: 
* :8olHIB6heFqv8pnw: 
* :vFkwFhLseLsS1rRj: 
* :cB832y95S2bmU5Wl: 
