@id jtAuuHKaMK25oXNK
@title some AeroDynamic Aviation aircraft listed as "CPL" or "commercial"
@created 1687705405640
* :WfJFq77Q4OzHT9Yv: 
* :jUfzmopZqBdTIGBQ: 
