@id tvcTcBadJWoEaMwI
@title block pricing at AeroDynamic
@created 1688829569756
* :L0nlCOeWKE3CKTkG: 
* :Z2HRB5Spz03BnDft: 
